# File generated by Flopy version 3.10.0.dev3 on 09/05/2025 at 12:24:52.

BEGIN options
  SAVE_FLOWS
  NETCDF_MESH2D  FILEOUT  mymodel.nc
END options

BEGIN packages
  DIS6  mymodel.dis  dis
  IC6  mymodel.ic  ic
  NPF6  mymodel.npf  npf
  STO6  mymodel.sto  sto
  CHD6  mymodel.chd  chd_0
  RCH6  mymodel.rcha  rcha_0
  OC6  mymodel.oc  oc
END packages
