BEGIN OPTIONS
  PRINT_INPUT
END OPTIONS

BEGIN PERIOD  1
  1  SOLR    800.0
  1  SHD       0.1
  1  SWREFL    0.03
  2  SOLR    800.0
  2  SHD       0.25
  2  SWREFL    0.03
END PERIOD  1
