BEGIN OPTIONS
  PRINT_INPUT
  DENSITY_AIR  1.225
  HEAT_CAPACITY_AIR  717.0
  DRAG_COEFFICIENT  0.002
END OPTIONS

BEGIN PERIOD  1
  1  WSPD    5.00
  1  TATM   12.97
  2  WSPD    4.99
  2  TATM   12.95
END PERIOD  1
